
  ******************************************************************
  *                           E P A N E T                          *
  *                   Hydraulic and Water Quality                  *
  *                   Analysis for Pipe Networks                   *
  *                         Version 3.0.000                        *
  ******************************************************************

  EPANET Example Network 3
  Example showing how the percent of Lake water in a dual-source
  system changes over time.

  Input Data File ............... Net3.inp
  Number of Junctions ........... 92
  Number of Reservoirs .......... 2
  Number of Tanks ............... 3
  Number of Pipes ............... 117
  Number of Pumps ............... 2
  Number of Valves .............. 0
  Head Loss Model ............... H-W
  Leakage Model ................. NONE
  Demand Model .................. FIXED
  Demand Multiplier ............. 1
  Number of Emitters ............ 0
  Head Tolerance ................ 0
  Flow Tolerance ................ 0
  Flow Change Limit ............. 0
  Quality Model ................. TRACE
  Quality Constituent ........... TRACE
  Number of Sources ............. 0
  Hydraulic Time Step ........... 60 minutes
  Quality Time Step ............. 300 seconds
  Report Time Step .............. 60 minutes
  Total Duration ................ 24 hours

  Hour 0:00:00
  Network balanced in 5 trials.

  Hour 1:00:00
    Pump 10 status changed to open by elapsed time control
  Network balanced in 7 trials.

  Hour 2:00:00
  Network balanced in 3 trials.

  Hour 3:00:00
  Network balanced in 2 trials.

  Hour 4:00:00
  Network balanced in 3 trials.

  Hour 4:13:33  (control activated)
    Pump 335 status changed to closed by level control on tank 1
    Pipe 330 status changed to open by level control on tank 1
  Network balanced in 4 trials.

  Hour 5:00:00
  Network balanced in 3 trials.

  Hour 6:00:00
  Network balanced in 3 trials.

  Hour 7:00:00
  Network balanced in 3 trials.

  Hour 8:00:00
  Network balanced in 2 trials.

  Hour 9:00:00
  Network balanced in 3 trials.

  Hour 10:00:00
  Network balanced in 2 trials.

  Hour 11:00:00
  Network balanced in 3 trials.

  Hour 12:00:00
  Network balanced in 2 trials.

  Hour 13:00:00
  Network balanced in 3 trials.

  Hour 14:00:00
  Network balanced in 3 trials.

  Hour 15:00:00
    Pump 10 status changed to closed by elapsed time control
  Network balanced in 5 trials.

  Hour 16:00:00
  Network balanced in 3 trials.

  Hour 17:00:00
  Network balanced in 2 trials.

  Hour 18:00:00
  Network balanced in 3 trials.

  Hour 19:00:00
  Network balanced in 2 trials.

  Hour 20:00:00
  Network balanced in 3 trials.

  Hour 21:00:00
  Network balanced in 2 trials.

  Hour 21:19:39  (control activated)
    Pump 335 status changed to open by level control on tank 1
    Pipe 330 status changed to closed by level control on tank 1
  Network balanced in 9 trials.

  Hour 22:00:00
  Network balanced in 3 trials.

  Hour 23:00:00
  Network balanced in 3 trials.

  Hour 24:00:00
  Network balanced in 4 trials.

  Water Quality Mass Balance
  --------------------------
  Initial Storage           0
  Mass Inflow               3641.02
  Mass Outflow              3273.04
  Mass Reacted              0
  Final Storage             249.8
  Percent Imbalance         3.24574

  Simulation completed in 0.029 sec.

  Node Results at 0:00:00 hrs
  ------------------------------------------------------------------------------------------------
                                  Head    Pressure      Demand     Deficit     Outflow       TRACE
  Node                              ft         psi         GPM         GPM         GPM        MG/L
  ------------------------------------------------------------------------------------------------
  10                           145.523      -0.640       0.000       0.000       0.000       0.000
  15                           125.811      40.648     620.000       0.000     620.000       0.000
  20                           158.000      12.566       0.000       0.000       0.000       0.000
  35                           145.743      57.734    1637.000       0.000    1637.000       0.000
  40                           145.000       5.676       0.000       0.000       0.000       0.000
  50                           140.000      10.183       0.000       0.000       0.000       0.000
  60                           209.011      90.564       0.000       0.000       0.000       0.000
  601                          302.454     131.053       0.000       0.000       0.000       0.000
  61                           302.454     131.053       0.000       0.000       0.000       0.000
  101                          145.523      44.857     254.533       0.000     254.533       0.000
  103                          145.492      44.410     178.488       0.000     178.488       0.000
  105                          146.829      51.272     181.396       0.000     181.396       0.000
  107                          146.823      54.086      73.218       0.000      73.218       0.000
  109                          145.493      54.246     310.076       0.000     310.076       0.000
  111                          146.109      58.976     190.200       0.000     190.200       0.000
  113                          146.149      62.460      26.813       0.000      26.813       0.000
  115                          146.919      57.594      69.814       0.000      69.814       0.000
  117                          150.031      59.115     157.731       0.000     157.731       0.000
  119                          157.553      67.401     236.014       0.000     236.014       0.000
  120                          155.121      67.214       0.000       0.000       0.000       0.000
  121                          161.011      70.633      55.784       0.000      55.784       0.000
  123                          165.468      66.931       0.000       0.000       0.000       0.000
  125                          160.428      64.747      61.104       0.000      61.104       0.000
  127                          158.740      44.517      23.664       0.000      23.664       0.000
  129                          158.728      46.678       0.000       0.000       0.000       0.000
  131                          158.707      66.168      57.285       0.000      57.285       0.000
  139                          153.075      52.895       7.893       0.000       7.893       0.000
  141                          149.060      62.855      13.199       0.000      13.199       0.000
  143                          138.246      61.852       8.308       0.000       8.308       0.000
  145                          150.280      64.683      37.024       0.000      37.024       0.000
  147                          151.204      57.501      11.457       0.000      11.457       0.000
  149                          151.595      58.753      36.274       0.000      36.274       0.000
  151                          155.444      52.838     193.603       0.000     193.603       0.000
  153                          155.540      38.711      59.188       0.000      59.188       0.000
  157                          155.115      61.535      69.399       0.000      69.399       0.000
  159                          151.758      63.157      55.369       0.000      55.369     100.000
  161                          149.481      63.037      21.172       0.000      21.172       0.000
  163                          149.023      62.405      12.623       0.000      12.623       0.000
  164                          149.023      62.405       0.000       0.000       0.000       0.000
  166                          149.023      65.438       3.484       0.000       3.484       0.000
  167                          147.153      65.928      19.510       0.000      19.510       0.000
  169                          147.153      65.928       0.000       0.000       0.000       0.000
  171                          146.070      65.025      52.716       0.000      52.716       0.000
  173                          146.048      65.016       0.000       0.000       0.000       0.000
  177                          145.730      59.679      77.948       0.000      77.948       0.000
  179                          145.717      59.673       0.000       0.000       0.000       0.000
  181                          145.749      59.687       0.000       0.000       0.000       0.000
  183                          145.720      58.374       0.000       0.000       0.000       0.000
  184                          144.491      55.675       0.000       0.000       0.000       0.000
  185                          145.078      55.929      34.371       0.000      34.371       0.000
  187                          145.781      57.751       0.000       0.000       0.000       0.000
  189                          146.090      61.568     144.613       0.000     144.613       0.000
  191                          146.051      52.451     109.746       0.000     109.746       0.000
  193                          146.147      55.526      95.555       0.000      95.555       0.000
  195                          146.218      56.640       0.000       0.000       0.000       0.000
  197                          146.060      53.322      22.834       0.000      22.834       0.000
  199                          140.832      61.889     159.889       0.000     159.889       0.000
  201                          140.096      60.660      59.777       0.000      59.777       0.000
  203                          139.931      59.766    4439.000       0.000    4439.000       0.000
  204                          145.533      53.960       0.000       0.000       0.000       0.000
  205                          140.800      51.910      87.582       0.000      87.582       0.000
  206                          139.895      60.183       0.000       0.000       0.000       0.000
  207                          140.097      56.804      92.983       0.000      92.983       0.000
  208                          139.666      53.584       0.000       0.000       0.000       0.000
  209                          139.269      61.212       1.166       0.000       1.166       0.000
  211                          139.136      57.254      11.618       0.000      11.618       0.000
  213                          139.070      57.226      18.680       0.000      18.680       0.000
  215                          138.877      57.142     123.535       0.000     123.535       0.000
  217                          138.857      57.567      32.455       0.000      32.455       0.000
  219                          138.846      58.429      55.369       0.000      55.369       0.000
  225                          138.851      56.698      30.552       0.000      30.552       0.000
  229                          138.978      55.670      86.001       0.000      86.001       0.000
  231                          138.974      58.051      22.083       0.000      22.083       0.000
  237                          139.085      54.199      20.917       0.000      20.917       0.000
  239                          139.085      54.633      59.777       0.000      59.777       0.000
  241                          139.085      54.633       0.000       0.000       0.000       0.000
  243                          139.085      54.199       5.816       0.000       5.816       0.000
  247                          139.089      52.468      94.309       0.000      94.309       0.000
  249                          139.089      52.468       0.000       0.000       0.000       0.000
  251                          139.100      47.273      32.374       0.000      32.374       0.000
  253                          139.219      44.725      73.057       0.000      73.057       0.000
  255                          139.272      48.647      54.123       0.000      54.123       0.000
  257                          151.999      58.495       0.000       0.000       0.000       0.000
  259                          151.563      54.840       0.000       0.000       0.000       0.000
  261                          149.983      64.988       0.000       0.000       0.000       0.000
  263                          149.819      64.917       0.000       0.000       0.000       0.000
  265                          147.748      64.019       0.000       0.000       0.000       0.000
  267                          146.169      54.236       0.000       0.000       0.000       0.000
  269                          146.492      63.475       0.000       0.000       0.000       0.000
  271                          145.839      60.592       0.000       0.000       0.000       0.000
  273                          140.800      57.542       0.000       0.000       0.000       0.000
  275                          140.103      56.373       0.000       0.000       0.000       0.000
  River                        220.000       0.000       0.000       0.000   13157.874       0.000
  Lake                         167.000       0.000       0.000       0.000       0.000       0.000
  1                            145.000       5.676       0.000       0.000    -460.322       0.000
  2                            140.000      10.183       0.000       0.000     329.212       0.000
  3                            158.000      12.566       0.000       0.000   -2246.297       0.000


  Link Results at 0:00:00 hrs
  ------------------------------------------------------------------------
                             Flow Rate     Leakage    Velocity   Head Loss      Status
  Link                             GPM         GPM        ft/s      ft/kft
  ------------------------------------------------------------------------
  20                         -2246.297       0.000       0.094       0.000        OPEN
  40                          -460.322       0.000       0.019       0.000        OPEN
  50                           329.212       0.000       0.014       0.000        OPEN
  60                         13157.874       0.000       9.332       8.927        OPEN
  101                            0.000       0.000       0.000       0.000        OPEN
  103                          168.058       0.000       0.268       0.023        OPEN
  105                         -422.591       0.000       1.199       0.514        OPEN
  107                           32.301       0.000       0.092       0.004        OPEN
  109                          -10.430       0.000       0.017       0.000        OPEN
  111                         -320.506       0.000       0.909       0.308        OPEN
  112                          498.355       0.000       1.414       0.698        OPEN
  113                          -80.629       0.000       0.229       0.024        OPEN
  114                          124.371       0.000       0.794       0.385        OPEN
  115                          -40.917       0.000       0.261       0.049        OPEN
  116                           16.928       0.000       0.048       0.001        OPEN
  117                          636.288       0.000       1.805       1.097        OPEN
  119                         -733.456       0.000       2.081       1.428        OPEN
  120                         1159.132       0.000       3.288       3.332        OPEN
  121                         1039.286       0.000       2.948       2.722        OPEN
  122                          368.343       0.000       2.351       2.873        OPEN
  123                         9821.710       0.000       4.458       1.729        OPEN
  125                        13157.874       0.000       5.972       2.971        OPEN
  129                         2912.038       0.000       2.065       0.627        OPEN
  131                         2634.653       0.000       1.868       0.521        OPEN
  133                        -2246.297       0.000       2.294       0.942        OPEN
  135                          364.691       0.000       0.259       0.013        OPEN
  137                           57.285       0.000       0.091       0.003        OPEN
  145                          307.406       0.000       1.962       2.055        OPEN
  147                          299.514       0.000       1.912       1.959        OPEN
  149                         -628.308       0.000       4.010       7.724        OPEN
  151                         -620.000       0.000       3.957       7.536        OPEN
  153                          341.993       0.000       0.970       0.347        OPEN
  155                          379.017       0.000       1.075       0.420        OPEN
  159                         -390.474       0.000       1.108       0.444        OPEN
  161                         -426.748       0.000       2.724       3.773        OPEN
  163                         -157.093       0.000       0.446       0.082        OPEN
  169                          216.281       0.000       1.380       1.072        OPEN
  171                          463.259       0.000       1.314       0.610        OPEN
  173                         7963.305       0.000       3.614       1.172        OPEN
  175                         7893.906       0.000       3.583       1.153        OPEN
  177                         7838.537       0.000       3.558       1.138        OPEN
  179                         7565.716       0.000       3.434       1.066        OPEN
  180                            3.484       0.000       0.007       0.000        OPEN
  181                            3.484       0.000       0.007       0.000        OPEN
  183                         7341.326       0.000       3.332       1.008        OPEN
  185                          -19.510       0.000       0.125       0.012        OPEN
  186                          340.159       0.000       2.171       2.479        OPEN
  187                         6708.975       0.000       3.045       0.853        OPEN
  189                         4690.033       0.000       2.129       0.440        OPEN
  191                        -1966.226       0.000       1.394       0.303        OPEN
  193                        -1637.000       0.000       1.161       0.216        OPEN
  195                          473.472       0.000       1.343       0.635        OPEN
  197                          395.524       0.000       1.122       0.455        OPEN
  199                          -64.798       0.000       0.184       0.016        OPEN
  201                         -460.322       0.000       1.306       0.602        OPEN
  202                          541.817       0.000       3.458       5.871        OPEN
  203                          236.029       0.000       1.507       1.260        OPEN
  204                          541.817       0.000       1.537       0.815        OPEN
  205                          340.159       0.000       0.965       0.344        OPEN
  207                          300.827       0.000       0.853       0.274        OPEN
  209                          160.663       0.000       1.025       0.618        OPEN
  211                          612.841       0.000       1.739       1.023        OPEN
  213                          179.496       0.000       0.509       0.105        OPEN
  215                          137.508       0.000       0.390       0.064        OPEN
  217                         -243.797       0.000       0.692       0.186        OPEN
  219                         -251.649       0.000       0.714       0.197        OPEN
  221                          251.649       0.000       1.606       1.419        OPEN
  223                           45.445       0.000       0.129       0.008        OPEN
  225                           68.278       0.000       0.194       0.018        OPEN
  229                         4690.033       0.000       3.326       1.304        OPEN
  231                         4419.404       0.000       3.134       1.168        OPEN
  233                         4439.000       0.000       3.148       1.369        OPEN
  235                          110.740       0.000       0.314       0.043        OPEN
  237                          453.728       0.000       1.287       0.587        OPEN
  238                          392.619       0.000       1.114       0.449        OPEN
  239                           31.873       0.000       0.090       0.004        OPEN
  240                          392.619       0.000       1.114       0.449        OPEN
  241                          392.619       0.000       1.114       0.449        OPEN
  243                          391.453       0.000       0.625       0.110        OPEN
  245                          298.079       0.000       0.476       0.066        OPEN
  247                          241.910       0.000       0.386       0.045        OPEN
  249                          118.376       0.000       0.189       0.012        OPEN
  251                           55.369       0.000       0.115       0.006        OPEN
  257                           30.552       0.000       0.087       0.004        OPEN
  261                           37.489       0.000       0.239       0.042        OPEN
  263                           22.083       0.000       0.063       0.002        OPEN
  269                           81.757       0.000       0.232       0.025        OPEN
  271                           70.596       0.000       0.451       0.135        OPEN
  273                           -9.756       0.000       0.028       0.000        OPEN
  275                          -22.782       0.000       0.065       0.002        OPEN
  277                            5.816       0.000       0.016       0.000        OPEN
  281                          -28.598       0.000       0.117       0.009        OPEN
  283                          -46.752       0.000       0.133       0.009        OPEN
  285                            2.622       0.000       0.007       0.000        OPEN
  287                         -125.528       0.000       0.513       0.132        OPEN
  289                          329.212       0.000       1.345       0.787        OPEN
  291                           73.057       0.000       0.298       0.048        OPEN
  293                           76.504       0.000       0.488       0.156        OPEN
  295                          -44.130       0.000       0.125       0.008        OPEN
  297                          488.189       0.000       3.116       4.841        OPEN
  299                          234.545       0.000       1.497       1.245        OPEN
  301                          234.545       0.000       1.497       1.245        OPEN
  303                          253.644       0.000       1.619       1.440        OPEN
  305                          148.099       0.000       0.420       0.074        OPEN
  307                          401.743       0.000       1.140       0.468        OPEN
  309                          208.283       0.000       1.329       1.000        OPEN
  311                          -70.775       0.000       0.201       0.019        OPEN
  313                          468.595       0.000       1.329       0.623        OPEN
  315                        -2110.471       0.000       1.497       0.345        OPEN
  317                          111.247       0.000       0.710       0.313        OPEN
  319                           -0.507       0.000       0.001       0.000        OPEN
  321                         7549.609       0.000       3.427       1.062        OPEN
  323                          -79.373       0.000       0.225       0.023        OPEN
  325                          144.246       0.000       0.921       0.506        OPEN
  329                        13157.874       0.000       5.972       3.011        OPEN
  330                           -0.000       0.000       0.000   93443.016      CLOSED
  333                           -0.000       0.000       0.000       0.000        OPEN
  10                             0.000       0.000       0.000      21.477      CLOSED/Pump
  335                        13157.875       0.000       0.000     -93.443        OPEN/Pump


  Node Results at 1:00:00 hrs
  ------------------------------------------------------------------------------------------------
                                  Head    Pressure      Demand     Deficit     Outflow       TRACE
  Node                              ft         psi         GPM         GPM         GPM        MG/L
  ------------------------------------------------------------------------------------------------
  10                           239.696      40.165       0.000       0.000       0.000       0.000
  15                           126.774      41.066     620.000       0.000     620.000       0.000
  20                           158.853      12.935       0.000       0.000       0.000       0.000
  35                           148.700      59.015    1706.000       0.000    1706.000       0.100
  40                           145.651       5.958       0.000       0.000       0.000       0.000
  50                           138.655       9.600       0.000       0.000       0.000       0.000
  60                           209.158      90.628       0.000       0.000       0.000       0.000
  601                          303.446     131.483       0.000       0.000       0.000       0.000
  61                           303.446     131.483       0.000       0.000       0.000       0.000
  101                          172.800      56.676     368.503       0.000     368.503       0.000
  103                          170.177      55.106     258.408       0.000     258.408       0.000
  105                          163.488      58.490     262.618       0.000     262.618       0.000
  107                          162.764      60.993     106.002       0.000     106.002       0.000
  109                          164.387      62.433     448.916       0.000     448.916       0.000
  111                          157.938      64.102     275.364       0.000     275.364       0.000
  113                          155.989      66.723      38.819       0.000      38.819       0.000
  115                          158.763      62.726     101.074       0.000     101.074       0.000
  117                          160.566      63.680     228.357       0.000     228.357       0.000
  119                          160.998      68.894     341.692       0.000     341.692       0.000
  120                          160.999      69.761       0.000       0.000       0.000       0.000
  121                          163.905      71.887      80.762       0.000      80.762       0.000
  123                          168.302      68.159       0.000       0.000       0.000       0.000
  125                          162.957      65.843      88.464       0.000      88.464       0.000
  127                          160.147      45.127      34.260       0.000      34.260       0.000
  129                          160.133      47.287       0.000       0.000       0.000       0.000
  131                          160.093      66.768      82.935       0.000      82.935       0.000
  139                          154.242      53.401      11.427       0.000      11.427       0.000
  141                          150.142      63.323      19.109       0.000      19.109       0.000
  143                          139.209      62.269      12.028       0.000      12.028       0.000
  145                          151.403      65.170      53.602       0.000      53.602       0.000
  147                          152.433      58.033      16.587       0.000      16.587       0.000
  149                          152.878      59.309      52.516       0.000      52.516       0.000
  151                          157.497      53.728     280.291       0.000     280.291       0.000
  153                          157.577      39.593      85.690       0.000      85.690       0.000
  157                          158.530      63.015     100.473       0.000     100.473       0.000
  159                          155.158      64.630      80.161       0.000      80.161     100.000
  161                          152.883      64.511      30.652       0.000      30.652     100.000
  163                          152.402      63.869      18.275       0.000      18.275     100.000
  164                          152.402      63.869       0.000       0.000       0.000       0.000
  166                          152.402      66.902       5.044       0.000       5.044       0.000
  167                          150.398      67.334      28.246       0.000      28.246      97.817
  169                          150.399      67.334       0.000       0.000       0.000     100.000
  171                          149.089      66.334      76.320       0.000      76.320      98.595
  173                          149.063      66.322       0.000       0.000       0.000      83.660
  177                          148.672      60.953     112.850       0.000     112.850       0.102
  179                          148.648      60.943       0.000       0.000       0.000       0.000
  181                          148.707      60.968       0.000       0.000       0.000       1.842
  183                          148.771      59.696       0.000       0.000       0.000       0.000
  184                          147.693      57.062       0.000       0.000       0.000       0.000
  185                          148.496      57.411      49.761       0.000      49.761       0.000
  187                          150.168      59.652       0.000       0.000       0.000       0.099
  189                          150.109      63.309     209.365       0.000     209.365      27.266
  191                          152.754      55.356     158.886       0.000     158.886       0.282
  193                          152.769      58.396     138.341       0.000     138.341      74.156
  195                          152.772      59.480       0.000       0.000       0.000     100.000
  197                          154.175      56.838      33.058       0.000      33.058       0.000
  199                          142.735      62.714     231.481       0.000     231.481       0.000
  201                          141.883      61.435      86.543       0.000      86.543       0.000
  203                          141.713      60.538    4531.000       0.000    4531.000       0.000
  204                          149.580      55.714       0.000       0.000       0.000       0.000
  205                          142.637      52.705     126.798       0.000     126.798       0.000
  206                          140.854      60.599       0.000       0.000       0.000       0.000
  207                          141.502      57.413     134.617       0.000     134.617       0.000
  208                          140.118      53.781       0.000       0.000       0.000       0.000
  209                          138.843      61.027       1.688       0.000       1.688       0.000
  211                          138.415      56.942      16.820       0.000      16.820       0.000
  213                          138.268      56.879      27.044       0.000      27.044       0.000
  215                          137.885      56.712     178.849       0.000     178.849       0.000
  217                          137.846      57.129      46.987       0.000      46.987       0.000
  219                          137.823      57.985      80.161       0.000      80.161       0.000
  225                          137.833      56.257      44.232       0.000      44.232       0.000
  229                          137.869      55.189     124.509       0.000     124.509       0.000
  231                          137.861      57.569      31.971       0.000      31.971       0.000
  237                          137.984      53.722      30.283       0.000      30.283       0.000
  239                          137.943      54.138      86.543       0.000      86.543       0.000
  241                          137.943      54.138       0.000       0.000       0.000       0.000
  243                          137.942      53.704       8.420       0.000       8.420       0.000
  247                          137.941      51.970     136.537       0.000     136.537       0.000
  249                          137.941      51.970       0.000       0.000       0.000       0.000
  251                          137.941      46.771      46.870       0.000      46.870       0.000
  253                          137.907      44.156     105.769       0.000     105.769       0.000
  255                          138.013      48.102      78.357       0.000      78.357       0.000
  257                          161.037      62.411       0.000       0.000       0.000       0.000
  259                          161.079      58.963       0.000       0.000       0.000       0.000
  261                          161.019      69.769       0.000       0.000       0.000       0.000
  263                          161.245      69.868       0.000       0.000       0.000       0.000
  265                          151.068      65.458       0.000       0.000       0.000     100.000
  267                          151.323      56.469       0.000       0.000       0.000      94.132
  269                          150.155      65.062       0.000       0.000       0.000      99.141
  271                          148.818      61.883       0.000       0.000       0.000      21.764
  273                          142.650      58.344       0.000       0.000       0.000       0.000
  275                          141.856      57.133       0.000       0.000       0.000       0.000
  River                        220.000       0.000       0.000       0.000   13062.031       0.000
  Lake                         167.000       0.000       0.000       0.000    3435.198       0.000
  1                            145.651       5.958       0.000       0.000    -996.563       0.000
  2                            138.655       9.600       0.000       0.000     307.711       0.000
  3                            158.853      12.935       0.000       0.000   -3038.043       0.000


  Link Results at 1:00:00 hrs
  ------------------------------------------------------------------------
                             Flow Rate     Leakage    Velocity   Head Loss      Status
  Link                             GPM         GPM        ft/s      ft/kft
  ------------------------------------------------------------------------
  20                         -3038.043       0.000       0.127       0.000        OPEN
  40                          -996.563       0.000       0.042       0.000        OPEN
  50                           307.711       0.000       0.013       0.000        OPEN
  60                         13062.031       0.000       9.264       8.807        OPEN
  101                         3435.198       0.000       4.331       4.711        OPEN
  103                         1846.160       0.000       2.946       1.943        OPEN
  105                         1220.535       0.000       3.462       3.666        OPEN
  107                          413.089       0.000       1.172       0.493        OPEN
  109                         1587.752       0.000       2.534       1.470        OPEN
  111                         1138.836       0.000       3.231       3.225        OPEN
  112                          503.619       0.000       1.429       0.712        OPEN
  113                          655.730       0.000       1.860       1.160        OPEN
  114                          248.602       0.000       1.587       1.387        OPEN
  115                          307.088       0.000       1.960       2.051        OPEN
  116                          865.513       0.000       2.455       1.940        OPEN
  117                         -544.827       0.000       1.546       0.823        OPEN
  119                         -546.207       0.000       1.549       0.827        OPEN
  120                          -21.775       0.000       0.062       0.002        OPEN
  121                          274.788       0.000       0.780       0.232        OPEN
  122                          251.513       0.000       1.605       1.417        OPEN
  123                         8943.907       0.000       4.060       1.454        OPEN
  125                        13062.031       0.000       5.929       2.931        OPEN
  129                         3785.850       0.000       2.685       1.019        OPEN
  131                         3469.580       0.000       2.461       0.867        OPEN
  133                        -3038.043       0.000       3.103       1.648        OPEN
  135                          397.277       0.000       0.282       0.016        OPEN
  137                           82.935       0.000       0.132       0.006        OPEN
  145                          314.342       0.000       2.006       2.142        OPEN
  147                          302.915       0.000       1.933       2.000        OPEN
  149                         -632.028       0.000       4.034       7.809        OPEN
  151                         -620.000       0.000       3.957       7.536        OPEN
  153                          348.222       0.000       0.988       0.359        OPEN
  155                          401.824       0.000       1.140       0.468        OPEN
  159                         -418.411       0.000       1.187       0.505        OPEN
  161                         -470.927       0.000       3.006       4.529        OPEN
  163                         -142.115       0.000       0.403       0.068        OPEN
  169                          227.805       0.000       1.454       1.180        OPEN
  171                          609.103       0.000       1.728       1.012        OPEN
  173                         8014.887       0.000       3.638       1.186        OPEN
  175                         7914.415       0.000       3.592       1.159        OPEN
  177                         7834.254       0.000       3.556       1.137        OPEN
  179                         7762.991       0.000       3.524       1.118        OPEN
  180                            5.044       0.000       0.011       0.000        OPEN
  181                            5.044       0.000       0.011       0.000        OPEN
  183                         7817.513       0.000       3.548       1.133        OPEN
  185                          -28.246       0.000       0.180       0.025        OPEN
  186                          542.854       0.000       3.465       5.892        OPEN
  187                         7431.514       0.000       3.373       1.031        OPEN
  189                         5205.593       0.000       2.363       0.533        OPEN
  191                        -2149.601       0.000       1.524       0.357        OPEN
  193                        -1706.000       0.000       1.210       0.233        OPEN
  195                          656.049       0.000       1.861       1.161        OPEN
  197                          543.199       0.000       1.541       0.819        OPEN
  199                         -453.364       0.000       1.286       0.586        OPEN
  201                         -996.563       0.000       2.827       2.518        OPEN
  202                          642.174       0.000       4.099       8.043        OPEN
  203                          149.081       0.000       0.952       0.538        OPEN
  204                          642.174       0.000       1.822       1.116        OPEN
  205                          542.854       0.000       1.540       0.818        OPEN
  207                          602.445       0.000       1.709       0.992        OPEN
  209                          -65.681       0.000       0.419       0.118        OPEN
  211                          357.753       0.000       1.015       0.378        OPEN
  213                          608.535       0.000       1.726       1.010        OPEN
  215                          600.824       0.000       1.704       0.987        OPEN
  217                          -89.117       0.000       0.253       0.029        OPEN
  219                          -40.611       0.000       0.115       0.007        OPEN
  221                           40.611       0.000       0.259       0.048        OPEN
  223                          678.304       0.000       1.924       1.235        OPEN
  225                          711.361       0.000       2.018       1.349        OPEN
  229                         5205.593       0.000       3.692       1.582        OPEN
  231                         4783.023       0.000       3.392       1.352        OPEN
  233                         4531.000       0.000       3.213       1.422        OPEN
  235                          191.089       0.000       0.542       0.118        OPEN
  237                          587.225       0.000       1.666       0.946        OPEN
  238                          737.328       0.000       2.092       1.441        OPEN
  239                          284.720       0.000       0.808       0.247        OPEN
  240                          737.328       0.000       2.092       1.441        OPEN
  241                          737.328       0.000       2.092       1.441        OPEN
  243                          735.640       0.000       1.174       0.354        OPEN
  245                          460.156       0.000       0.734       0.148        OPEN
  247                          350.228       0.000       0.559       0.089        OPEN
  249                          171.380       0.000       0.273       0.024        OPEN
  251                           80.161       0.000       0.167       0.011        OPEN
  257                           44.232       0.000       0.125       0.008        OPEN
  261                           82.884       0.000       0.529       0.181        OPEN
  263                           31.971       0.000       0.091       0.004        OPEN
  269                          258.664       0.000       0.734       0.207        OPEN
  271                           73.596       0.000       0.470       0.146        OPEN
  273                          154.785       0.000       0.439       0.080        OPEN
  275                           30.784       0.000       0.087       0.004        OPEN
  277                            8.420       0.000       0.024       0.000        OPEN
  281                           22.364       0.000       0.091       0.005        OPEN
  283                           37.458       0.000       0.106       0.006        OPEN
  285                          -38.382       0.000       0.109       0.006        OPEN
  287                          -75.791       0.000       0.310       0.052        OPEN
  289                          307.711       0.000       1.257       0.694        OPEN
  291                          105.769       0.000       0.432       0.096        OPEN
  293                           47.795       0.000       0.305       0.065        OPEN
  295                           -0.924       0.000       0.003       0.000        OPEN
  297                          -45.050       0.000       0.288       0.059        OPEN
  299                          -66.104       0.000       0.422       0.119        OPEN
  301                          -66.104       0.000       0.422       0.119        OPEN
  303                           21.054       0.000       0.134       0.014        OPEN
  305                         -499.777       0.000       1.418       0.702        OPEN
  307                         -478.723       0.000       1.358       0.648        OPEN
  309                          -77.840       0.000       0.497       0.161        OPEN
  311                          678.665       0.000       1.925       1.236        OPEN
  313                          145.305       0.000       0.412       0.071        OPEN
  315                        -2362.049       0.000       1.675       0.426        OPEN
  317                          119.240       0.000       0.761       0.356        OPEN
  319                           71.849       0.000       0.204       0.019        OPEN
  321                         7739.672       0.000       3.513       1.112        OPEN
  323                          165.480       0.000       0.469       0.091        OPEN
  325                          212.448       0.000       1.356       1.037        OPEN
  329                        13062.031       0.000       5.929       2.970        OPEN
  330                           -0.000       0.000       0.000   94287.500      CLOSED
  333                           -0.000       0.000       0.000       0.000        OPEN
  10                          3435.198       0.000       0.000     -72.696        OPEN/Pump
  335                        13062.031       0.000       0.000     -94.287        OPEN/Pump


  Node Results at 2:00:00 hrs
  ------------------------------------------------------------------------------------------------
                                  Head    Pressure      Demand     Deficit     Outflow       TRACE
  Node                              ft         psi         GPM         GPM         GPM        MG/L
  ------------------------------------------------------------------------------------------------
  10                           241.371      40.891       0.000       0.000       0.000       0.000
  15                           130.436      42.652     620.000       0.000     620.000       0.000
  20                           160.007      13.435       0.000       0.000       0.000       0.000
  35                           151.703      60.317    1719.000       0.000    1719.000      99.993
  40                           147.059       6.569       0.000       0.000       0.000      72.683
  50                           137.398       9.055       0.000       0.000       0.000       0.000
  60                           209.296      90.688       0.000       0.000       0.000       0.000
  601                          304.375     131.886       0.000       0.000       0.000       0.000
  61                           304.375     131.886       0.000       0.000       0.000       0.000
  101                          178.211      59.020     277.327       0.000     277.327       0.000
  103                          175.754      57.522     194.472       0.000     194.472       0.000
  105                          168.174      60.521     197.640       0.000     197.640       0.000
  107                          167.465      63.030      79.774       0.000      79.774       0.000
  109                          169.966      64.850     337.844       0.000     337.844       0.000
  111                          162.307      65.995     207.232       0.000     207.232       0.000
  113                          160.042      68.480      29.215       0.000      29.215       0.000
  115                          162.936      64.534      76.066       0.000      76.066       0.000
  117                          164.129      65.224     171.857       0.000     171.857       0.000
  119                          164.003      70.196     257.150       0.000     257.150       0.000
  120                          164.183      71.140       0.000       0.000       0.000       0.000
  121                          166.608      73.058      60.780       0.000      60.780       0.000
  123                          170.949      69.306       0.000       0.000       0.000       0.000
  125                          165.432      66.916      66.576       0.000      66.576       0.000
  127                          161.796      45.842      25.784       0.000      25.784       0.000
  129                          161.786      48.003       0.000       0.000       0.000       0.000
  131                          161.762      67.492      62.415       0.000      62.415       0.000
  139                          157.044      54.615       8.599       0.000       8.599       0.000
  141                          153.708      64.869      14.381       0.000      14.381       0.000
  143                          142.871      63.856       9.052       0.000       9.052       0.000
  145                          155.137      66.787      40.340       0.000      40.340       0.000
  147                          156.220      59.674      12.483       0.000      12.483       0.000
  149                          156.678      60.956      39.522       0.000      39.522       0.000
  151                          161.186      55.326     210.941       0.000     210.941       0.000
  153                          161.258      41.189      64.488       0.000      64.488       0.000
  157                          161.591      64.341      75.613       0.000      75.613       0.000
  159                          158.276      65.981      60.327       0.000      60.327     100.000
  161                          156.031      65.875      23.068       0.000      23.068     100.000
  163                          155.543      65.230      13.753       0.000      13.753     100.000
  164                          155.543      65.230       0.000       0.000       0.000       0.000
  166                          155.543      68.263       3.796       0.000       3.796       0.000
  167                          153.503      68.679      21.258       0.000      21.258     100.000
  169                          153.503      68.680       0.000       0.000       0.000      99.990
  171                          152.145      67.657      57.436       0.000      57.436     100.000
  173                          152.118      67.646       0.000       0.000       0.000     100.000
  177                          151.659      62.247      84.928       0.000      84.928      99.993
  179                          151.617      62.229       0.000       0.000       0.000      73.260
  181                          151.710      62.270       0.000       0.000       0.000     100.000
  183                          151.778      60.999       0.000       0.000       0.000      21.557
  184                          150.775      58.398       0.000       0.000       0.000       8.094
  185                          151.593      58.752      37.449       0.000      37.449       7.305
  187                          153.393      61.049       0.000       0.000       0.000       4.682
  189                          153.299      64.691     157.563       0.000     157.563      21.226
  191                          156.315      56.899     119.574       0.000     119.574       0.520
  193                          156.317      59.933     104.113       0.000     104.113       4.482
  195                          156.311      61.013       0.000       0.000       0.000     100.000
  197                          157.989      58.491      24.878       0.000      24.878       0.000
  199                          145.763      64.025     174.207       0.000     174.207     100.000
  201                          144.896      62.740      65.131       0.000      65.131     100.000
  203                          144.727      61.844    4511.000       0.000    4511.000     100.000
  204                          152.759      57.091       0.000       0.000       0.000       3.953
  205                          145.631      54.003      95.426       0.000      95.426       0.000
  206                          143.286      61.653       0.000       0.000       0.000       0.000
  207                          144.262      58.609     101.309       0.000     101.309       0.034
  208                          142.180      54.674       0.000       0.000       0.000       0.000
  209                          140.261      61.642       1.270       0.000       1.270       0.000
  211                          139.617      57.463      12.658       0.000      12.658       0.000
  213                          139.486      57.406      20.352       0.000      20.352       0.000
  215                          139.260      57.308     134.597       0.000     134.597       0.000
  217                          139.237      57.731      35.361       0.000      35.361       0.000
  219                          139.223      58.592      60.327       0.000      60.327       0.000
  225                          139.229      56.862      33.288       0.000      33.288       0.000
  229                          138.319      55.384      93.703       0.000      93.703       0.000
  231                          138.314      57.765      24.061       0.000      24.061       0.000
  237                          138.297      53.858      22.791       0.000      22.791       0.000
  239                          137.964      54.147      65.131       0.000      65.131       0.000
  241                          137.961      54.146       0.000       0.000       0.000       0.000
  243                          137.961      53.712       6.336       0.000       6.336       0.000
  247                          137.876      51.942     102.755       0.000     102.755       0.000
  249                          137.877      51.943       0.000       0.000       0.000       0.000
  251                          137.792      46.706      35.274       0.000      35.274       0.000
  253                          137.471      43.967      79.599       0.000      79.599       0.000
  255                          137.533      47.894      58.969       0.000      58.969       0.000
  257                          164.515      63.918       0.000       0.000       0.000       0.000
  259                          164.598      60.488       0.000       0.000       0.000       0.000
  261                          164.615      71.328       0.000       0.000       0.000       0.000
  263                          164.928      71.463       0.000       0.000       0.000       0.000
  265                          154.187      66.809       0.000       0.000       0.000      99.594
  267                          154.631      57.902       0.000       0.000       0.000       4.482
  269                          153.316      66.432       0.000       0.000       0.000     100.000
  271                          151.836      63.191       0.000       0.000       0.000     100.000
  273                          145.653      59.645       0.000       0.000       0.000      99.312
  275                          144.838      58.425       0.000       0.000       0.000      58.033
  River                        220.000       0.000       0.000       0.000   12972.117       0.000
  Lake                         167.000       0.000       0.000       0.000    3330.250       0.000
  1                            147.059       6.569       0.000       0.000   -1249.691       0.000
  2                            137.398       9.055       0.000       0.000    -132.705       0.000
  3                            160.006      13.435       0.000       0.000   -3619.730       0.000


  Link Results at 2:00:00 hrs
  ------------------------------------------------------------------------
                             Flow Rate     Leakage    Velocity   Head Loss      Status
  Link                             GPM         GPM        ft/s      ft/kft
  ------------------------------------------------------------------------
  20                         -3619.730       0.000       0.151       0.000        OPEN
  40                         -1249.691       0.000       0.052       0.000        OPEN
  50                          -132.705       0.000       0.006       0.000        OPEN
  60                         12972.117       0.000       9.200       8.695        OPEN
  101                         3330.250       0.000       4.199       4.448        OPEN
  103                         1781.953       0.000       2.843       1.820        OPEN
  105                         1270.970       0.000       3.605       3.952        OPEN
  107                          408.152       0.000       1.158       0.482        OPEN
  109                         1587.480       0.000       2.533       1.469        OPEN
  111                         1249.636       0.000       3.545       3.830        OPEN
  112                          434.958       0.000       1.234       0.542        OPEN
  113                          711.210       0.000       2.018       1.348        OPEN
  114                          254.358       0.000       1.624       1.447        OPEN
  115                          328.378       0.000       2.096       2.323        OPEN
  116                          936.353       0.000       2.656       2.244        OPEN
  117                         -665.178       0.000       1.887       1.191        OPEN
  119                         -437.004       0.000       1.240       0.547        OPEN
  120                         -284.453       0.000       0.807       0.247        OPEN
  121                           89.366       0.000       0.254       0.029        OPEN
  122                          228.135       0.000       1.456       1.183        OPEN
  123                         8430.479       0.000       3.826       1.303        OPEN
  125                        12972.117       0.000       5.888       2.894        OPEN
  129                         4252.723       0.000       3.016       1.264        OPEN
  131                         3987.510       0.000       2.828       1.122        OPEN
  133                        -3619.730       0.000       3.697       2.280        OPEN
  135                          341.996       0.000       0.243       0.012        OPEN
  137                           62.415       0.000       0.100       0.004        OPEN
  145                          279.581       0.000       1.785       1.724        OPEN
  147                          270.982       0.000       1.730       1.627        OPEN
  149                         -629.052       0.000       4.015       7.741        OPEN
  151                         -620.000       0.000       3.957       7.536        OPEN
  153                          372.451       0.000       1.057       0.407        OPEN
  155                          412.791       0.000       1.171       0.492        OPEN
  159                         -425.274       0.000       1.206       0.520        OPEN
  161                         -464.796       0.000       2.967       4.420        OPEN
  163                         -134.148       0.000       0.381       0.061        OPEN
  169                          198.637       0.000       1.268       0.915        OPEN
  171                          541.589       0.000       1.536       0.814        OPEN
  173                         7916.194       0.000       3.593       1.159        OPEN
  175                         7840.581       0.000       3.559       1.139        OPEN
  177                         7780.253       0.000       3.531       1.123        OPEN
  179                         7824.066       0.000       3.551       1.135        OPEN
  180                            3.796       0.000       0.008       0.000        OPEN
  181                            3.796       0.000       0.008       0.000        OPEN
  183                         7911.569       0.000       3.591       1.158        OPEN
  185                          -21.258       0.000       0.136       0.015        OPEN
  186                          565.045       0.000       3.607       6.346        OPEN
  187                         7579.956       0.000       3.440       1.070        OPEN
  189                         5218.042       0.000       2.368       0.536        OPEN
  191                        -2304.478       0.000       1.634       0.407        OPEN
  193                        -1719.000       0.000       1.219       0.236        OPEN
  195                          809.877       0.000       2.297       1.715        OPEN
  197                          724.949       0.000       2.057       1.397        OPEN
  199                         -524.742       0.000       1.489       0.768        OPEN
  201                        -1249.691       0.000       3.545       3.830        OPEN
  202                          648.209       0.000       4.137       8.184        OPEN
  203                          120.613       0.000       0.770       0.363        OPEN
  204                          648.209       0.000       1.839       1.136        OPEN
  205                          565.045       0.000       1.603       0.881        OPEN
  207                          645.355       0.000       1.831       1.126        OPEN
  209                          -84.931       0.000       0.542       0.190        OPEN
  211                          310.355       0.000       0.880       0.290        OPEN
  213                          649.976       0.000       1.844       1.141        OPEN
  215                          632.031       0.000       1.793       1.084        OPEN
  217                          -28.277       0.000       0.080       0.003        OPEN
  219                           66.881       0.000       0.190       0.017        OPEN
  221                          -66.881       0.000       0.427       0.122        OPEN
  223                          741.274       0.000       2.103       1.456        OPEN
  225                          766.152       0.000       2.173       1.548        OPEN
  229                         5218.042       0.000       3.701       1.589        OPEN
  231                         4825.722       0.000       3.422       1.375        OPEN
  233                         4511.000       0.000       3.199       1.410        OPEN
  235                          218.113       0.000       0.619       0.151        OPEN
  237                          649.935       0.000       1.844       1.141        OPEN
  238                          919.178       0.000       2.608       2.168        OPEN
  239                          370.552       0.000       1.051       0.403        OPEN
  240                          919.178       0.000       2.608       2.168        OPEN
  241                          919.178       0.000       2.608       2.168        OPEN
  243                          917.908       0.000       1.465       0.533        OPEN
  245                          431.875       0.000       0.689       0.132        OPEN
  247                          263.574       0.000       0.421       0.053        OPEN
  249                          128.976       0.000       0.206       0.014        OPEN
  251                           60.327       0.000       0.126       0.007        OPEN
  257                           33.288       0.000       0.094       0.005        OPEN
  261                          147.949       0.000       0.944       0.531        OPEN
  263                           24.061       0.000       0.068       0.003        OPEN
  269                          473.375       0.000       1.343       0.634        OPEN
  271                          -30.185       0.000       0.193       0.028        OPEN
  273                          480.769       0.000       1.364       0.653        OPEN
  275                          159.595       0.000       0.453       0.085        OPEN
  277                            6.336       0.000       0.018       0.000        OPEN
  281                          153.259       0.000       0.626       0.191        OPEN
  283                          256.043       0.000       0.726       0.203        OPEN
  285                         -125.435       0.000       0.356       0.054        OPEN
  287                          175.939       0.000       0.719       0.247        OPEN
  289                         -132.705       0.000       0.542       0.146        OPEN
  291                           79.599       0.000       0.325       0.057        OPEN
  293                          -95.335       0.000       0.609       0.235        OPEN
  295                          130.608       0.000       0.371       0.058        OPEN
  297                         -145.683       0.000       0.930       0.516        OPEN
  299                          -95.494       0.000       0.610       0.236        OPEN
  301                          -95.494       0.000       0.610       0.236        OPEN
  303                          -50.189       0.000       0.320       0.072        OPEN
  305                         -519.495       0.000       1.474       0.754        OPEN
  307                         -569.684       0.000       1.616       0.894        OPEN
  309                         -105.052       0.000       0.671       0.281        OPEN
  311                          737.083       0.000       2.091       1.441        OPEN
  313                           85.956       0.000       0.244       0.027        OPEN
  315                        -2528.877       0.000       1.793       0.483        OPEN
  317                          120.961       0.000       0.772       0.365        OPEN
  319                           97.152       0.000       0.276       0.034        OPEN
  321                         7806.517       0.000       3.543       1.130        OPEN
  323                          249.591       0.000       0.708       0.194        OPEN
  325                          224.399       0.000       1.432       1.147        OPEN
  329                        12972.117       0.000       5.888       2.932        OPEN
  330                           -0.000       0.000       0.000   95079.242      CLOSED
  333                           -0.000       0.000       0.000       0.000        OPEN
  10                          3330.250       0.000       0.000     -74.371        OPEN/Pump
  335                        12972.118       0.000       0.000     -95.079        OPEN/Pump


  Node Results at 3:00:00 hrs
  ------------------------------------------------------------------------------------------------
                                  Head    Pressure      Demand     Deficit     Outflow       TRACE
  Node                              ft         psi         GPM         GPM         GPM        MG/L
  ------------------------------------------------------------------------------------------------
  10                           241.723      41.043       0.000       0.000       0.000       0.000
  15                           131.789      43.238     620.000       0.000     620.000       0.000
  20                           161.381      14.031       0.000       0.000       0.000       0.000
  35                           152.976      60.868    1719.000       0.000    1719.000      98.922
  40                           148.826       7.334       0.000       0.000       0.000      63.914
  50                           137.940       9.290       0.000       0.000       0.000       0.000
  60                           209.361      90.716       0.000       0.000       0.000       0.000
  601                          304.812     132.075       0.000       0.000       0.000       0.000
  61                           304.812     132.075       0.000       0.000       0.000       0.000
  101                          179.345      59.511     273.528       0.000     273.528       0.000
  103                          176.917      58.026     191.808       0.000     191.808       0.000
  105                          169.413      61.058     194.933       0.000     194.933       0.000
  107                          168.711      63.570      78.682       0.000      78.682       0.000
  109                          171.187      65.379     333.216       0.000     333.216       0.000
  111                          163.574      66.543     204.394       0.000     204.394       0.000
  113                          161.311      69.029      28.814       0.000      28.814       0.000
  115                          164.204      65.083      75.024       0.000      75.024       0.000
  117                          165.397      65.774     169.502       0.000     169.502       0.000
  119                          165.271      70.745     253.627       0.000     253.627       0.000
  120                          165.451      71.690       0.000       0.000       0.000       0.000
  121                          167.874      73.606      59.947       0.000      59.947       0.000
  123                          172.189      69.843       0.000       0.000       0.000       0.000
  125                          166.717      67.472      65.664       0.000      65.664       0.000
  127                          163.140      46.424      25.430       0.000      25.430       0.000
  129                          163.129      48.586       0.000       0.000       0.000       0.000
  131                          163.106      68.074      61.560       0.000      61.560       0.000
  139                          158.393      55.199       8.482       0.000       8.482       0.000
  141                          155.057      65.453      14.184       0.000      14.184       0.000
  143                          144.223      64.442       8.928       0.000       8.928       0.000
  145                          156.484      67.371      39.787       0.000      39.787       0.000
  147                          157.563      60.256      12.312       0.000      12.312       0.000
  149                          158.018      61.537      38.981       0.000      38.981       0.000
  151                          162.499      55.895     208.051       0.000     208.051       0.000
  153                          162.571      41.757      63.605       0.000      63.605       0.000
  157                          162.858      64.890      74.578       0.000      74.578       0.000
  159                          159.540      66.529      59.501       0.000      59.501     100.000
  161                          157.291      66.421      22.752       0.000      22.752     100.000
  163                          156.803      65.776      13.565       0.000      13.565     100.000
  164                          156.803      65.776       0.000       0.000       0.000       0.000
  166                          156.803      68.809       3.744       0.000       3.744       0.000
  167                          154.759      69.224      20.966       0.000      20.966      98.740
  169                          154.760      69.224       0.000       0.000       0.000      98.732
  171                          153.397      68.200      56.650       0.000      56.650      98.740
  173                          153.370      68.188       0.000       0.000       0.000      98.740
  177                          152.939      62.802      83.765       0.000      83.765      98.915
  179                          152.903      62.787       0.000       0.000       0.000      62.533
  181                          152.983      62.821       0.000       0.000       0.000      98.791
  183                          153.058      61.554       0.000       0.000       0.000      10.760
  184                          152.006      58.931       0.000       0.000       0.000       2.888
  185                          152.848      59.296      36.936       0.000      36.936       2.732
  187                          154.657      61.597       0.000       0.000       0.000       0.165
  189                          154.563      65.239     155.405       0.000     155.405      10.723
  191                          157.585      57.449     117.936       0.000     117.936       0.165
  193                          157.587      60.483     102.686       0.000     102.686       0.000
  195                          157.581      61.563       0.000       0.000       0.000       0.000
  197                          159.259      59.041      24.538       0.000      24.538       0.000
  199                          146.842      64.493     171.821       0.000     171.821      98.984
  201                          145.951      63.197      64.238       0.000      64.238      99.186
  203                          145.776      62.298    4582.000       0.000    4582.000      99.547
  204                          154.020      57.638       0.000       0.000       0.000       0.165
  205                          146.708      54.469      94.118       0.000      94.118      19.512
  206                          144.273      62.080       0.000       0.000       0.000      35.116
  207                          145.291      59.055      99.922       0.000      99.922      39.561
  208                          143.120      55.081       0.000       0.000       0.000      28.508
  209                          141.118      62.013       1.253       0.000       1.253      24.470
  211                          140.446      57.822      12.485       0.000      12.485      11.704
  213                          140.314      57.765      20.074       0.000      20.074       0.000
  215                          140.093      57.669     132.754       0.000     132.754       0.000
  217                          140.071      58.093      34.877       0.000      34.877       0.000
  219                          140.057      58.954      59.501       0.000      59.501       0.000
  225                          140.064      57.223      32.832       0.000      32.832       0.000
  229                          139.058      55.704      92.419       0.000      92.419       0.000
  231                          139.053      58.085      23.731       0.000      23.731       0.000
  237                          139.025      54.173      22.478       0.000      22.478       0.000
  239                          138.656      54.447      64.238       0.000      64.238       0.000
  241                          138.653      54.445       0.000       0.000       0.000       0.000
  243                          138.652      54.012       6.250       0.000       6.250       0.000
  247                          138.557      52.237     101.347       0.000     101.347       0.000
  249                          138.557      52.237       0.000       0.000       0.000       0.000
  251                          138.459      46.995      34.790       0.000      34.790       0.000
  253                          138.081      44.232      78.509       0.000      78.509       0.000
  255                          138.142      48.158      58.162       0.000      58.162       0.000
  257                          165.781      64.467       0.000       0.000       0.000       0.000
  259                          165.863      61.036       0.000       0.000       0.000       0.000
  261                          165.880      71.876       0.000       0.000       0.000       0.000
  263                          166.191      72.010       0.000       0.000       0.000       0.000
  265                          155.445      67.354       0.000       0.000       0.000      98.716
  267                          155.897      58.451       0.000       0.000       0.000       0.000
  269                          154.579      66.979       0.000       0.000       0.000      98.740
  271                          153.103      63.740       0.000       0.000       0.000      98.755
  273                          146.730      60.112       0.000       0.000       0.000      99.995
  275                          145.890      58.881       0.000       0.000       0.000      99.924
  River                        220.000       0.000       0.000       0.000   12929.878       0.000
  Lake                         167.000       0.000       0.000       0.000    3307.910       0.000
  1                            148.826       7.334       0.000       0.000   -1176.829       5.631
  2                            137.940       9.290       0.000       0.000    -164.681       0.000
  3                            161.381      14.031       0.000       0.000   -3585.999       0.000


  Link Results at 3:00:00 hrs
  ------------------------------------------------------------------------
                             Flow Rate     Leakage    Velocity   Head Loss      Status
  Link                             GPM         GPM        ft/s      ft/kft
  ------------------------------------------------------------------------
  20                         -3585.999       0.000       0.149       0.000        OPEN
  40                         -1176.829       0.000       0.049       0.000        OPEN
  50                          -164.681       0.000       0.007       0.000        OPEN
  60                         12929.878       0.000       9.170       8.643        OPEN
  101                         3307.910       0.000       4.171       4.393        OPEN
  103                         1770.644       0.000       2.825       1.798        OPEN
  105                         1263.738       0.000       3.585       3.910        OPEN
  107                          406.203       0.000       1.152       0.478        OPEN
  109                         1578.836       0.000       2.519       1.454        OPEN
  111                         1245.620       0.000       3.534       3.807        OPEN
  112                          435.353       0.000       1.235       0.543        OPEN
  113                          710.768       0.000       2.016       1.347        OPEN
  114                          254.284       0.000       1.623       1.446        OPEN
  115                          327.521       0.000       2.090       2.311        OPEN
  116                          936.238       0.000       2.656       2.243        OPEN
  117                         -662.602       0.000       1.880       1.183        OPEN
  119                         -437.141       0.000       1.240       0.547        OPEN
  120                         -283.989       0.000       0.806       0.246        OPEN
  121                           89.071       0.000       0.253       0.029        OPEN
  122                          228.030       0.000       1.455       1.182        OPEN
  123                         8425.902       0.000       3.824       1.302        OPEN
  125                        12929.878       0.000       5.869       2.877        OPEN
  129                         4215.999       0.000       2.990       1.244        OPEN
  131                         3952.425       0.000       2.803       1.104        OPEN
  133                        -3585.999       0.000       3.662       2.241        OPEN
  135                          340.996       0.000       0.242       0.012        OPEN
  137                           61.560       0.000       0.098       0.004        OPEN
  145                          279.436       0.000       1.784       1.723        OPEN
  147                          270.954       0.000       1.729       1.627        OPEN
  149                         -628.928       0.000       4.014       7.738        OPEN
  151                         -620.000       0.000       3.957       7.536        OPEN
  153                          372.158       0.000       1.056       0.406        OPEN
  155                          411.945       0.000       1.169       0.490        OPEN
  159                         -424.257       0.000       1.204       0.518        OPEN
  161                         -463.238       0.000       2.957       4.393        OPEN
  163                         -134.305       0.000       0.381       0.062        OPEN
  169                          197.910       0.000       1.263       0.909        OPEN
  171                          536.984       0.000       1.523       0.801        OPEN
  173                         7919.280       0.000       3.594       1.160        OPEN
  175                         7844.703       0.000       3.561       1.140        OPEN
  177                         7785.202       0.000       3.534       1.124        OPEN
  179                         7830.430       0.000       3.554       1.136        OPEN
  180                            3.744       0.000       0.008       0.000        OPEN
  181                            3.744       0.000       0.008       0.000        OPEN
  183                         7919.103       0.000       3.594       1.160        OPEN
[...]
  40                           147.685       6.840       0.000       0.000       0.000      15.479
  50                           139.459       9.948       0.000       0.000       0.000       2.121
  60                           209.120      90.612       0.000       0.000       0.000       0.000
  601                          303.185     131.370       0.000       0.000       0.000       0.000
  61                           303.185     131.370       0.000       0.000       0.000       0.000
  101                          147.692      45.796     254.533       0.000     254.533       0.000
  103                          147.661      45.350     178.488       0.000     178.488       0.000
  105                          148.995      52.211     181.396       0.000     181.396       0.000
  107                          148.989      55.024      73.218       0.000      73.218       0.000
  109                          147.662      55.186     310.076       0.000     310.076       0.000
  111                          148.279      59.916     190.200       0.000     190.200       0.000
  113                          148.321      63.401      26.813       0.000      26.813       0.000
  115                          149.086      58.533      69.814       0.000      69.814       0.000
  117                          152.189      60.051     157.731       0.000     157.731       0.000
  119                          159.694      68.329     236.014       0.000     236.014       0.000
  120                          157.268      68.144       0.000       0.000       0.000       0.000
  121                          163.146      71.558      55.784       0.000      55.784       0.000
  123                          167.558      67.837       0.000       0.000       0.000       0.000
  125                          162.585      65.682      61.104       0.000      61.104       0.000
  127                          160.969      45.483      23.664       0.000      23.664       0.000
  129                          160.957      47.644       0.000       0.000       0.000       0.000
  131                          160.936      67.134      57.285       0.000      57.285       0.000
  139                          155.274      53.848       7.893       0.000       7.893       0.000
  141                          151.237      63.798      13.199       0.000      13.199       0.000
  143                          140.422      62.795       8.308       0.000       8.308       0.000
  145                          152.450      65.623      37.024       0.000      37.024       0.000
  147                          153.371      58.440      11.457       0.000      11.457       0.000
  149                          153.760      59.691      36.274       0.000      36.274       0.000
  151                          157.594      53.770     193.603       0.000     193.603       0.000
  153                          157.690      39.643      59.188       0.000      59.188       0.000
  157                          157.260      62.464      69.399       0.000      69.399       0.000
  159                          153.908      64.089      55.369       0.000      55.369     100.000
  161                          151.635      63.970      21.172       0.000      21.172     100.000
  163                          151.177      63.339      12.623       0.000      12.623     100.000
  164                          151.177      63.339       0.000       0.000       0.000     100.000
  166                          151.177      66.372       3.484       0.000       3.484       0.000
  167                          149.310      66.862      19.510       0.000      19.510     100.000
  169                          149.310      66.863       0.000       0.000       0.000     100.000
  171                          148.226      65.959      52.716       0.000      52.716     100.000
  173                          148.202      65.949       0.000       0.000       0.000     100.000
  177                          147.944      60.638      77.948       0.000      77.948      15.479
  179                          147.939      60.635       0.000       0.000       0.000      15.479
  181                          147.952      60.641       0.000       0.000       0.000      85.630
  183                          147.939      59.336       0.000       0.000       0.000      15.479
  184                          146.579      56.580       0.000       0.000       0.000      50.543
  185                          147.213      56.855      34.371       0.000      34.371      50.842
  187                          147.945      58.688       0.000       0.000       0.000      88.923
  189                          148.272      62.513     144.613       0.000     144.613      99.948
  191                          148.221      53.392     109.746       0.000     109.746     100.000
  193                          148.319      56.467      95.555       0.000      95.555     100.000
  195                          148.390      57.581       0.000       0.000       0.000     100.000
  197                          148.230      54.262      22.834       0.000      22.834      85.278
  199                          142.640      62.672     159.889       0.000     159.889     100.000
  201                          141.862      61.426      59.777       0.000      59.777      99.933
  203                          141.698      60.531    4439.000       0.000    4439.000      99.935
  204                          147.687      54.894       0.000       0.000       0.000      88.923
  205                          142.587      52.684      87.582       0.000      87.582      77.530
  206                          141.307      60.795       0.000       0.000       0.000      73.798
  207                          141.725      57.510      92.983       0.000      92.983      77.743
  208                          140.833      54.090       0.000       0.000       0.000      70.031
  209                          140.010      61.533       1.166       0.000       1.166      67.172
  211                          139.734      57.514      11.618       0.000      11.618      61.967
  213                          139.653      57.479      18.680       0.000      18.680      60.276
  215                          139.460      57.395     123.535       0.000     123.535      35.664
  217                          139.440      57.820      32.455       0.000      32.455      23.765
  219                          139.429      58.681      55.369       0.000      55.369      26.297
  225                          139.434      56.950      30.552       0.000      30.552      26.617
  229                          139.341      55.827      86.001       0.000      86.001      48.124
  231                          139.337      58.208      22.083       0.000      22.083      25.277
  237                          139.371      54.323      20.917       0.000      20.917      33.764
  239                          139.317      54.733      59.777       0.000      59.777      32.269
  241                          139.317      54.733       0.000       0.000       0.000      41.632
  243                          139.317      54.300       5.816       0.000       5.816       0.000
  247                          139.309      52.563      94.309       0.000      94.309       2.121
  249                          139.309      52.563       0.000       0.000       0.000      20.697
  251                          139.306      47.362      32.374       0.000      32.374       2.121
  253                          139.256      44.741      73.057       0.000      73.057       2.121
  255                          139.309      48.664      54.123       0.000      54.123       2.121
  257                          154.153      59.428       0.000       0.000       0.000       0.000
  259                          153.718      55.773       0.000       0.000       0.000       0.000
  261                          152.142      65.923       0.000       0.000       0.000       0.000
  263                          151.978      65.852       0.000       0.000       0.000       0.000
  265                          149.905      64.954       0.000       0.000       0.000     100.000
  267                          148.344      55.178       0.000       0.000       0.000      93.253
  269                          148.665      64.416       0.000       0.000       0.000     100.000
  271                          148.029      61.541       0.000       0.000       0.000     100.000
  273                          142.590      58.318       0.000       0.000       0.000      99.996
  275                          141.859      57.134       0.000       0.000       0.000      98.809
  River                        220.000       0.000       0.000       0.000   13087.223       0.000
  Lake                         167.000       0.000       0.000       0.000       0.000       0.000
  1                            147.685       6.840       0.000       0.000    -262.500      15.479
  2                            139.459       9.948       0.000       0.000     140.043       2.121
  3                            160.266      13.548       0.000       0.000   -2184.299       0.000


  Link Results at 24:00:00 hrs
  ------------------------------------------------------------------------
                             Flow Rate     Leakage    Velocity   Head Loss      Status
  Link                             GPM         GPM        ft/s      ft/kft
  ------------------------------------------------------------------------
  20                         -2184.299       0.000       0.091       0.000        OPEN
  40                          -262.500       0.000       0.011       0.000        OPEN
  50                           140.043       0.000       0.006       0.000        OPEN
  60                         13087.223       0.000       9.281       8.839        OPEN
  101                            0.000       0.000       0.000       0.000        OPEN
  103                          167.589       0.000       0.267       0.023        OPEN
  105                         -422.122       0.000       1.197       0.513        OPEN
  107                           31.990       0.000       0.091       0.004        OPEN
  109                          -10.899       0.000       0.017       0.000        OPEN
  111                         -320.975       0.000       0.911       0.309        OPEN
  112                          497.324       0.000       1.411       0.695        OPEN
  113                          -82.100       0.000       0.233       0.025        OPEN
  114                          123.980       0.000       0.791       0.382        OPEN
  115                          -41.227       0.000       0.263       0.050        OPEN
  116                           15.067       0.000       0.043       0.001        OPEN
  117                          635.508       0.000       1.803       1.095        OPEN
  119                         -732.346       0.000       2.078       1.424        OPEN
  120                         1157.643       0.000       3.284       3.324        OPEN
  121                         1038.000       0.000       2.945       2.716        OPEN
  122                          367.942       0.000       2.348       2.867        OPEN
  123                         9812.394       0.000       4.454       1.726        OPEN
  125                        13087.223       0.000       5.940       2.942        OPEN
  129                         2851.103       0.000       2.022       0.603        OPEN
  131                         2573.547       0.000       1.825       0.499        OPEN
  133                        -2184.299       0.000       2.231       0.895        OPEN
  135                          365.584       0.000       0.259       0.013        OPEN
  137                           57.285       0.000       0.091       0.003        OPEN
  145                          308.299       0.000       1.968       2.066        OPEN
  147                          300.406       0.000       1.917       1.970        OPEN
  149                         -628.308       0.000       4.010       7.724        OPEN
  151                         -620.000       0.000       3.957       7.536        OPEN
  153                          341.101       0.000       0.968       0.346        OPEN
  155                          378.125       0.000       1.073       0.418        OPEN
  159                         -389.582       0.000       1.105       0.442        OPEN
  161                         -425.856       0.000       2.718       3.759        OPEN
  163                         -157.264       0.000       0.446       0.082        OPEN
  169                          216.452       0.000       1.382       1.073        OPEN
  171                          462.195       0.000       1.311       0.607        OPEN
  173                         7956.542       0.000       3.611       1.170        OPEN
  175                         7887.143       0.000       3.580       1.152        OPEN
  177                         7831.774       0.000       3.555       1.137        OPEN
  179                         7559.698       0.000       3.431       1.065        OPEN
  180                            3.484       0.000       0.007       0.000        OPEN
  181                            3.484       0.000       0.007       0.000        OPEN
  183                         7336.640       0.000       3.330       1.007        OPEN
  185                          -19.510       0.000       0.125       0.012        OPEN
  186                          347.444       0.000       2.218       2.578        OPEN
  187                         6712.097       0.000       3.047       0.854        OPEN
  189                         4855.792       0.000       2.204       0.469        OPEN
  191                        -1803.590       0.000       1.279       0.258        OPEN
  193                        -1637.000       0.000       1.161       0.216        OPEN
  195                          308.727       0.000       0.876       0.287        OPEN
  197                          230.779       0.000       0.655       0.168        OPEN
  199                          -31.721       0.000       0.090       0.004        OPEN
  201                         -262.500       0.000       0.745       0.213        OPEN
  202                          565.228       0.000       3.608       6.350        OPEN
  203                          252.155       0.000       1.609       1.424        OPEN
  204                          565.228       0.000       1.603       0.881        OPEN
  205                          347.444       0.000       0.986       0.358        OPEN
  207                          283.875       0.000       0.805       0.246        OPEN
  209                          165.605       0.000       1.057       0.654        OPEN
  211                          605.032       0.000       1.716       0.999        OPEN
  213                          181.839       0.000       0.516       0.108        OPEN
  215                          131.199       0.000       0.372       0.059        OPEN
  217                         -246.169       0.000       0.698       0.189        OPEN
  219                         -250.904       0.000       0.712       0.196        OPEN
  221                          250.904       0.000       1.601       1.411        OPEN
  223                           45.416       0.000       0.129       0.008        OPEN
  225                           68.250       0.000       0.194       0.018        OPEN
  229                         4855.792       0.000       3.444       1.391        OPEN
  231                         4553.069       0.000       3.229       1.234        OPEN
  233                         4439.000       0.000       3.148       1.369        OPEN
  235                          142.833       0.000       0.405       0.069        OPEN
  237                          506.389       0.000       1.437       0.719        OPEN
  238                          581.788       0.000       1.650       0.930        OPEN
  239                          168.381       0.000       0.478       0.094        OPEN
  240                          581.788       0.000       1.650       0.930        OPEN
  241                          581.788       0.000       1.650       0.930        OPEN
  243                          580.622       0.000       0.926       0.228        OPEN
  245                          333.178       0.000       0.532       0.082        OPEN
  247                          241.910       0.000       0.386       0.045        OPEN
  249                          118.376       0.000       0.189       0.012        OPEN
  251                           55.369       0.000       0.115       0.006        OPEN
  257                           30.552       0.000       0.087       0.004        OPEN
  261                           72.588       0.000       0.463       0.142        OPEN
  263                           22.083       0.000       0.063       0.002        OPEN
  269                          235.827       0.000       0.669       0.175        OPEN
  271                           35.496       0.000       0.227       0.038        OPEN
  273                          179.413       0.000       0.509       0.105        OPEN
  275                           48.422       0.000       0.137       0.009        OPEN
  277                            5.816       0.000       0.016       0.000        OPEN
  281                           42.606       0.000       0.174       0.018        OPEN
  283                           71.214       0.000       0.202       0.019        OPEN
  285                          -48.234       0.000       0.137       0.009        OPEN
  287                           -3.469       0.000       0.014       0.000        OPEN
  289                          140.043       0.000       0.572       0.162        OPEN
  291                           73.057       0.000       0.298       0.048        OPEN
  293                            9.394       0.000       0.060       0.003        OPEN
  295                           22.980       0.000       0.065       0.002        OPEN
  297                          487.585       0.000       3.112       4.830        OPEN
  299                          234.255       0.000       1.495       1.243        OPEN
  301                          234.255       0.000       1.495       1.243        OPEN
  303                          253.330       0.000       1.617       1.436        OPEN
  305                          147.923       0.000       0.420       0.074        OPEN
  307                          401.253       0.000       1.138       0.467        OPEN
  309                          206.951       0.000       1.321       0.988        OPEN
  311                          -75.753       0.000       0.215       0.021        OPEN
  313                          462.895       0.000       1.313       0.609        OPEN
  315                        -1945.727       0.000       1.380       0.297        OPEN
  317                          114.089       0.000       0.728       0.328        OPEN
  319                           28.744       0.000       0.082       0.004        OPEN
  321                         7543.591       0.000       3.424       1.060        OPEN
  323                           54.292       0.000       0.154       0.011        OPEN
  325                          142.137       0.000       0.907       0.493        OPEN
  329                        13087.223       0.000       5.940       2.981        OPEN
  330                           -0.000       0.000       0.000   94065.586      CLOSED
  333                           -0.000       0.000       0.000       0.000        OPEN
  10                             0.000       0.000       0.000      19.308      CLOSED/Pump
  335                        13087.224       0.000       0.000     -94.066        OPEN/Pump
